FoamFile
{
    version         2.0;
    format          ascii;
    class           dictionary;
    object          blockMeshDict;
}

scale 1;

b -0.1; // z-back
f  0.1; // z-front

// Vertices
X1 -3.0; // pre cantilever
X2  0.0; // begin cantilever
X3  0.05; // end cantileveer
X4  3.0; // wake

Y1 0; // bottom
Y2 0.6; // cantilever height
Y3 1.0; // top

// Blocks
H1 144; 
H2 20;
H3 192;

V1 48;
V2 32;

G3 4;

vertices
(
	// X1 layer back
	($X1 $Y1 $b)  // 0
	($X1 $Y2 $b)
	($X1 $Y3 $b)

	// X1 layer front
    ($X1 $Y1 $f)  // 3
    ($X1 $Y2 $f)
    ($X1 $Y3 $f)

    // X2 layer back
    ($X2 $Y1 $b)  // 6
    ($X2 $Y2 $b)
    ($X2 $Y3 $b)

    // X2 layer front
    ($X2 $Y1 $f)  // 9
    ($X2 $Y2 $f)
    ($X2 $Y3 $f)

    // X3 layer back
    ($X3 $Y1 $b)  // 12
    ($X3 $Y2 $b)
    ($X3 $Y3 $b)

    // X3 layer front
    ($X3 $Y1 $f)  // 15
    ($X3 $Y2 $f)
    ($X3 $Y3 $f)

    // X4 layer back
    ($X4 $Y1 $b)  // 18
    ($X4 $Y2 $b)
    ($X4 $Y3 $b)

    // X4 layer front
    ($X4 $Y1 $f)  // 21
    ($X4 $Y2 $f)
    ($X4 $Y3 $f)

);

blocks
(
	// Block 1-2
   	hex ( 0  6  7  1  3  9 10 4) ($H1 $V1 1) simpleGrading (1 1 1)
   	hex ( 1  7  8  2  4  10 11 5) ($H1 $V2 1) simpleGrading (1 1 1)
   	
	// Block 4 \3
	hex ( 7 13 14  8 10 16 17 11) ($H2 $V2 1) simpleGrading (1 1 1)

	// Block 5-6
	hex ( 12 18 19 13 15 21 22 16) ($H3 $V1 1) simpleGrading ($G3 1 1)
	hex ( 13 19 20 14 16 22 23 17) ($H3 $V2 1) simpleGrading ($G3 1 1)

);


boundary
(
    back
    {
        type empty;
        faces
        (
        (0 6 7 1)
        (1 7 8 2)
        (7 13 14 8)
        (12 18 19 13)
        (13 19 20 14)
        );
    }
    
    front
    {
        type empty;
        faces
        (
        (3 9 10 4)
        (4 10 11 5)
        (10 16 17 11)
        (15 21 22 16)
        (16 22 23 17)
        );
    }

    inlet
    {
        type patch;
        faces
        (
        (0 3 4 1)
        (1 4 5 2)
        );
    }

    outlet
    {
        type patch;
        faces
        (
        (18 21 22 19)
        (19 22 23 20)
        );
    }

    beam
    {
        type wall;
        faces
        (
        (6 9 10 7)
        //(6 12 15 9)
        (12 15 16 13)
        (13 16 10 7)
        );
    }

    bottom
    {
        type wall;
        faces
        (
        (0 6 9 3)
        (12 18 21 15)
        );
    }

    top
    {
	type wall;
	faces
	(
	(2 8 11 5)
	(8 14 17 11)
	(14 20 23 17)
	);
    }
);
